HELP = Used by the start-up procedure at the workstation.

DEFAULT = SISYPHE,TELEMAC,UTIL,DAMO,BIEF,HP