AIDE = Choix du type de format du fichier du niveau de la maree :
3 = selafin du type TELEMAC
4 = format utilisateur (Modifier alors  la procedure maruti.f)
**Mots-cles associes :**
PRISE EN COMPTE DE LA MAREE
FICHIER DU NIVEAU DE LA MAREE BINAIRE
FICHIER DU NIVEAU DE LA MAREE FORMATE
BINAIRE DU FICHIER DU NIVEAU DE LA MAREE
PERIODE D ACTUALISATION DE LA MAREE

DÉFAUT = 3

CHOIX = 3
'4="Format utilisateur (maruti.f)"