AIDE = Rang de la variable donnant le niveau de la maree
dans le fichier TELEMAC
**Mots-cles associes :**
PRISE EN COMPTE DE LA MAREE
FICHIER DU NIVEAU DE LA MAREE BINAIRE
FICHIER DU NIVEAU DE LA MAREE FORMATE
BINAIRE DU FICHIER DU NIVEAU DE LA MAREE
PERIODE D ACTUALISATION DE LA MAREE

DÉFAUT = 4