HELP = Rank of the water level data in the TELEMAC file
**Related keywords :**
CONSIDERATION OF TIDE
BINARY TIDAL WATER LEVEL FILE
FORMATTED TIDAL WATER LEVEL FILE
TIDAL WATER LEVEL FILE BINARY
TIDE REFRESHING PERIOD

DEFAULT = 4