HELP = Selection of winds file format type :
3 = selafin, TELEMAC type
4 = user format (the venuti.f procedure should then be amended)
**Related keywords :**
WINDS FILE TYPE
WINDS FILE
WINDS FILE BINARY

CHOICE = 3
'4="User format (venuti.f)"

DEFAULT = 1