ACTIVE LAYER THICKNESS
B VALUE FOR THE BIJKER FORMULA
BED LOAD
BED ROUGHNESS PREDICTION
BED ROUGHNESS PREDICTOR OPTION
BED-LOAD TRANSPORT FORMULA
BETA
BINARY OF THE PREVIOUS SEDIMENTOLOGICAL COMPUTATION FILE
BOTTOM TOPOGRAPHY FILE
BOUNDARY CONDITIONS FILE
C-VSM DYNAMIC ALT MODEL
C-VSM FULL PRINTOUT PERIOD
C-VSM MAXIMUM SECTIONS
C-VSM PRINTOUT SELECTION
COHESIVE SEDIMENTS
COMPUTATION CONTINUED
CONCENTRATION PER CLASS AT BOUNDARIES
CONSOLIDATION MODEL
CONSTANT ACTIVE LAYER THICKNESS
CONSTANT FLOW DISCHARGE
CONTROL SECTIONS
CORRECTION ON CONVECTION VELOCITY
CPU TIME
CRITERION TO UPDATE THE FLOW
CRITICAL EROSION SHEAR STRESS OF THE MUD
CRITICAL EVOLUTION RATIO
CRITICAL SHEAR VELOCITY FOR MUD DEPOSITION
D90
DEBUGGER
DEFAULT EXECUTABLE
DESCRIPTION OF LIBRARIES
DICTIONARY
DIFFUSION
DISPERSION ACROSS THE FLOW
DISPERSION ALONG THE FLOW
DREDGESIM
DREDGESIM DICO FILE
DREDGESIM FILE
DREDGESIM IPDS DICO FILE
DREDGESIM PHYDEF FILE CFG1
DREDGESIM PHYDEF FILE CFG2
DREDGESIM PHYDEF FILE CFG3
DREDGESIM PHYDEF FILE CFG4
DREDGESIM PHYDEF FILE CFG5
DREDGESIM POLYGON FILE
DREDGESIM SURFACE REFERENCE FILE
EFFECT OF WAVES
EQUILIBRIUM INFLOW CONCENTRATION
FINITE VOLUMES
FORMULA FOR DEVIATION
FORMULA FOR SLOPE EFFECT
FORMULATION FOR DEPOSITION AND EROSION
FORTRAN FILE
FREE INTEGER 1
FREE INTEGER 2
FREE LOGICAL 1
FRICTION ANGLE OF THE SEDIMENT
FRICTION COEFFICIENT
GEL CONCENTRATION
GEOMETRY FILE
GEOMETRY FILE BINARY
GEOMETRY FILE FORMAT
GRAIN-FEEDING
GRAPHIC PRINTOUT PERIOD
GRAPHIC SOFTWARE
GRAPHIC SOFTWARE OF THE HYDRODYNAMIC COMPUTATION
GRAVITY ACCELERATION
HIDING FACTOR FOR PARTICULAR SIZE CLASS
HIDING FACTOR FORMULA
HYDRODYNAMIC CODE
HYDRODYNAMIC FILE
HYDRODYNAMIC FILE BINARY
HYDRODYNAMIC FILE FORMAT
INITIAL FRACTION FOR PARTICULAR SIZE CLASS
INITIAL SUSPENSION CONCENTRATIONS
LAW OF BOTTOM FRICTION
LIBRARIES
LIQUID BOUNDARIES FILE
LIST OF FILES
LISTING PRINTOUT PERIOD
MASS CONCENTRATION
MASS TRANSFER PER LAYER
MASS-BALANCE
MASS-LUMPING
MATRIX STORAGE
MATRIX-VECTOR PRODUCT
MAXIMUM CONCENTRATION
MAXIMUM NUMBER OF ITERATIONS FOR ADVECTION SCHEMES
MAXIMUM NUMBER OF ITERATIONS FOR SOLVER
MAXIMUM NUMBER OF ITERATIONS FOR SOLVER FOR SUSPENSION
MEAN DIAMETER OF THE SEDIMENT
MEMORY SPACE CRAY
MESHING
MINIMAL VALUE OF THE WATER HEIGHT
MIXED SEDIMENT
MORPHOLOGICAL FACTOR
MPM COEFFICIENT
MUD CONCENTRATION PER LAYER
MUD CONSOLIDATION
NON COHESIVE BED POROSITY
NUMBER OF BED LOAD MODEL LAYERS
NUMBER OF ITERATIONS FOR TELEMAC
NUMBER OF LAYERS OF THE CONSOLIDATION MODEL
NUMBER OF PRIVATE ARRAYS
NUMBER OF SIZE-CLASSES OF BED MATERIAL
NUMBER OF SUB-ITERATIONS
NUMBER OF TIDES OR FLOODS
NUMBER OF TIME STEPS
OPTION FOR THE DIFFUSION OF TRACER
OPTION FOR THE DISPERSION
OPTION FOR THE TREATMENT OF NON ERODABLE BEDS
OPTION FOR THE TREATMENT OF TIDAL FLATS
ORIGIN COORDINATES
ORIGINAL DATE OF TIME
ORIGINAL HOUR OF TIME
PARALLEL PROCESSORS
PARAMETER FOR DEVIATION
PARTHENIADES CONSTANT
PASSWORD CRAY
PERMEABILITY COEFFICIENT
PRECONDITIONING
PRECONDITIONING FOR SUSPENSION
PRESCRIBED SOLID DISCHARGES
PREVIOUS SEDIMENTOLOGICAL COMPUTATION FILE
PREVIOUS SEDIMENTOLOGICAL COMPUTATION FILE FORMAT
PVM1 LIBRARY
PVM2 LIBRARY
RATIO BETWEEN SKIN FRICTION AND MEAN DIAMETER
REFERENCE CONCENTRATION FORMULA
REFERENCE FILE
REFERENCE FILE BINARY
REFERENCE FILE FORMAT
RELEASE
RESULTS FILE
RESULTS FILE BINARY
RESULTS FILE FORMAT
SCHEME OPTION FOR ADVECTION
SECONDARY CURRENTS
SECONDARY CURRENTS ALPHA COEFFICIENT
SECTIONS INPUT FILE
SECTIONS OUTPUT FILE
SEDIMENT DENSITY
SEDIMENT DIAMETERS
SEDIMENT SLIDE
SETTLING LAG
SETTLING VELOCITIES
SHIELDS PARAMETERS
SKIN FRICTION CORRECTION
SLOPE EFFECT
SOLVER
SOLVER ACCURACY
SOLVER ACCURACY FOR SUSPENSION
SOLVER FOR SUSPENSION
SOLVER OPTION
SOLVER OPTION FOR SUSPENSION
STARTING TIME OF THE HYDROGRAM
STATIONARY MODE
STEADY CASE
STEERING FILE
SUPG OPTION
SUSPENSION
TETA
TETA SUSPENSION
TIDAL FLATS
TIDE PERIOD
TIME STEP
TITLE
TREATMENT OF FLUXES AT THE BOUNDARIES
TYPE OF ADVECTION
USER CRAY
VALIDATION
VARIABLES FOR GRAPHIC PRINTOUTS
VARIABLES TO BE PRINTED
VECTOR LENGTH
VERTICAL GRAIN SORTING MODEL
WATER DENSITY
WATER VISCOSITY
WAVE FILE
WAVE FILE FORMAT
ZERO
