ABSCISSAE OF THE VERTICES OF THE POLYGON TO EXTRACT THE MESH
ABSCISSAE OF THE VERTICES OF THE POLYGON TO REFINE THE MESH
ACCOUNT
BATHYMETRY IN THE UNIVERSAL FILE
BIBLIOTHEQUES
BINARY STANDARD
BOTTOM CORRECTION OF TRIGRID
BOTTOM TOPOGRAPHY FILES
BOUNDARY CONDITIONS FILE
BOUNDARY CONDITIONS IN THE ADDITIONAL FILE
BOUNDARY FILE
CONVERTER
CPU TIME
CUTTING ELEMENTS IN FOUR
DEBUG
DEFAULT EXECUTABLE
DEFAULT PARALLEL EXECUTABLE
DESCRIPTION OF LIBRARIES
DICTIONARY
DRY ELEMENTS ELIMINATION
DRY LIMIT
ELIMINATION OF BACKWARD DEPENDENCIES
FORTRAN FILE
GEOMETRY FILE FOR TELEMAC
INPUT FILE
INPUT FILE FORMAT
LOG FILE
MAXIMUM NUMBER OF BATHYMETRIC POINTS
MEMORY SPACE
MESH ADDITIONAL DATA FILE
MESH GENERATOR
MINIMUM DISTANCE AT BOUNDARY
MINIMUM DISTANCE BETWEEN TWO POINTS
NODES RENUMBERING
NUMBER OF VERTICES OF THE POLYGON TO EXTRACT THE MESH
NUMBER OF VERTICES OF THE POLYGON TO REFINE THE MESH
ORDINATES OF THE VERTICES OF THE POLYGON TO EXTRACT THE MESH
ORDINATES OF THE VERTICES OF THE POLYGON TO REFINE THE MESH
OUTPUT BOUNDARY FILE
OUTPUT FILE
OUTPUT FILE FORMAT
OUTPUT LOG FILE
OVERSTRESSED TRIANGLES CUTTING
PARALLEL PROCESSORS
PARTIALLY DRY ELEMENTS ELIMINATION
PROJECTION AFTER EXTRACTION
RELEASE
SELAFIN IN DOUBLE PRECISION
STEERING FILE
STORAGE OF ALL TIME STEPS
UNIVERSAL FILE
VECTOR LENGTH
WRITING NODE COLOURS
