AIDE = Non utilise dans ARTEMIS. On le laisse par coherence avec TELEMAC2D

DÉFAUT = 0