AIDE = Nom du fichier des resultats 3D obtenu par un calcul avec
TELEMAC 3D.

DÉFAUT = aucun