ABSCISSES DES SOMMETS DE LA COUPE VERTICALE 1
ABSCISSES DES SOMMETS DE LA COUPE VERTICALE 2
ABSCISSES DES SOMMETS DE LA COUPE VERTICALE 3
ABSCISSES DES SOMMETS DE LA COUPE VERTICALE 4
ABSCISSES DES SOMMETS DE LA COUPE VERTICALE 5
ABSCISSES DES SOMMETS DE LA COUPE VERTICALE 6
ABSCISSES DES SOMMETS DE LA COUPE VERTICALE 7
ABSCISSES DES SOMMETS DE LA COUPE VERTICALE 8
ABSCISSES DES SOMMETS DE LA COUPE VERTICALE 9
BINAIRE DES FICHIERS DES COUPES
BINAIRE DU FICHIER DE GEOMETRIE
BINAIRE DU FICHIER DES RESULTATS 3D
DESCRIPTION DES LIBRAIRIES
DICTIONNAIRE
DISTORSION ENTRE VERTICALE ET HORIZONTALE
EXECUTABLE PAR DEFAUT
FICHIER DE GEOMETRIE
FICHIER DES COUPES HORIZONTALES
FICHIER DES COUPES VERTICALES
FICHIER DES PARAMETRES
FICHIER DES RESULTATS 3D
FICHIER FORTRAN
HAUTEUR PAR RAPPORT AU PLAN DE REFERENCE
LISTE DES FICHIERS
MOT DE PASSE CRAY
NOMBRE DE COUPES HORIZONTALES
NOMBRE DE COUPES VERTICALES
NOMBRE DE POINTS DE DISCRETISATION POUR LES COUPES VERTICALES
NUMERO DE VERSION
NUMERO DE VERSION DE TELEMAC-3D
NUMERO DU PREMIER ENREGISTREMENT POUR LES COUPES
ORDONNEES DES SOMMETS DE LA COUPE VERTICALE 1
ORDONNEES DES SOMMETS DE LA COUPE VERTICALE 2
ORDONNEES DES SOMMETS DE LA COUPE VERTICALE 3
ORDONNEES DES SOMMETS DE LA COUPE VERTICALE 4
ORDONNEES DES SOMMETS DE LA COUPE VERTICALE 5
ORDONNEES DES SOMMETS DE LA COUPE VERTICALE 6
ORDONNEES DES SOMMETS DE LA COUPE VERTICALE 7
ORDONNEES DES SOMMETS DE LA COUPE VERTICALE 8
ORDONNEES DES SOMMETS DE LA COUPE VERTICALE 9
PERIODE DE SORTIE DES COUPES
PLACE MEMOIRE CRAY
PLAN DE REFERENCE POUR CHAQUE COUPE HORIZONTALE
STATION DESTINATRICE
TEMPS MACHINE CRAY
USER CRAY
USER STATION
