ABSCISSES DES SOMMETS DU POLYGONE D'EXTRACTION
ABSCISSES DES SOMMETS DU POLYGONE DE RAFFINEMENT
BATHYMETRIE DANS LE FICHIER UNIVERSEL
BIBLIOTHEQUES
CONDITIONS LIMITES DANS LE FICHIER ADDITIONNEL
CONVERTISSEUR
CORRECTION DES FONDS DE TRIGRID
DEBUG
DECOUPAGE DES TRIANGLES EN QUATRE
DECOUPAGE DES TRIANGLES SURCONTRAINTS
DESCRIPTION DES LIBRAIRIES
DICTIONNAIRE
DISTANCE MINIMALE A LA FRONTIERE
DISTANCE MINIMALE ENTRE DEUX POINTS
ECRITURE DE LA COULEUR DES NOEUDS
ELIMINATION DES DEPENDANCES ARRIERES
ELIMINATION DES ELEMENTS PARTIELLEMENT SECS
ELIMINATION DES ELEMENTS SECS
EXECUTABLE PAR DEFAUT
EXECUTABLE PARALLELE PAR DEFAUT
FICHIER ADDITIONNEL DU MAILLEUR
FICHIER D ENTREE
FICHIER DE GEOMETRIE POUR TELEMAC
FICHIER DE SORTIE
FICHIER DES CONDITIONS AUX LIMITES
FICHIER DES CONDITIONS LIMITES
FICHIER DES CONDITIONS LIMITES EN SORTIE
FICHIER DES PARAMETRES
FICHIER FORTRAN
FICHIER LOG
FICHIER LOG EN SORTIE
FICHIER UNIVERSEL
FICHIERS DES FONDS
FORMAT DU FICHIER D ENTREE
FORMAT DU FICHIER DE SORTIE
LONGUEUR DU VECTEUR
MAILLEUR
NOMBRE DE SOMMETS DU POLYGONE D'EXTRACTION
NOMBRE DE SOMMETS DU POLYGONE DE RAFFINEMENT
NOMBRE MAXIMUM DE POINTS DE BATHYMETRIE
NUMERO DE COMPTE
NUMERO DE VERSION
ORDONNEES DES SOMMETS DU POLYGONE D'EXTRACTION
ORDONNEES DES SOMMETS DU POLYGONE DE RAFFINEMENT
PLACE MEMOIRE
PROCESSEURS PARALLELES
PROJECTION APRES EXTRACTION
RENUMEROTATION DES POINTS
SELAFIN EN DOUBLE PRECISION
SEUIL DE SECHERESSE
STANDARD DE BINAIRE
STOCKAGE DE TOUS LES PAS DE TEMPS
TEMPS MACHINE
