AIDE = Utilise par la procedure de lancement sur station de travail.

DÉFAUT = SISYPHE,TELEMAC,UTIL,DAMO,BIEF,HP